@<TRIPOS>MOLECULE
ZINC000191583186      none
 52 53 0 0 0
SMALL
GASTEIGER

@<TRIPOS>ATOM
      1 C         -15.2579   21.1839  -23.5457 C.3     1  UNL1       -0.0397
      2 C         -15.4512   20.0791  -22.5392 C.ar    1  UNL1       -0.0504
      3 C         -16.1319   18.9302  -22.8964 C.ar    1  UNL1       -0.0586
      4 C         -16.3092   17.9166  -21.9733 C.ar    1  UNL1       -0.0581
      5 C         -15.8055   18.0519  -20.6930 C.ar    1  UNL1       -0.0420
      6 C         -15.9994   16.9473  -19.6865 C.3     1  UNL1        0.0176
      7 CA        -17.3043   17.1775  -18.9214 C.3     1  UNL1        0.0053
      8 HA        -17.2581   18.1361  -18.4046 H       1  UNL1        0.0877
      9 C         -18.4771   17.1840  -19.9039 C.3     1  UNL1        0.0871
     10 O         -18.5377   15.9273  -20.5816 O.3     1  UNL1       -0.3894
     11 N         -17.4932   16.1008  -17.9403 N.4     1  UNL1        0.2330
     12 H1        -18.4657   16.0542  -17.6750 H       1  UNL1        0.2020
     13 H2        -17.2134   15.2212  -18.3480 H       1  UNL1        0.2020
     14 C         -16.6739   16.3721  -16.7515 C.3     1  UNL1       -0.0249
     15 H         -15.7066   16.7688  -17.0598 H       1  UNL1        0.0848
     16 C         -17.3857   17.3955  -15.8644 C.3     1  UNL1       -0.0216
     17 C         -16.4667   15.0743  -15.9679 C.3     1  UNL1       -0.0059
     18 C         -15.2522   15.2217  -15.0493 C.3     1  UNL1       -0.0204
     19 C         -15.0480   13.9435  -14.2775 C.ar    1  UNL1       -0.0170
     20 C         -15.9015   12.8741  -14.4733 C.ar    1  UNL1       -0.0564
     21 C         -15.7142   11.7015  -13.7654 C.ar    1  UNL1       -0.0614
     22 C         -14.6732   11.5984  -12.8621 C.ar    1  UNL1       -0.0596
     23 C         -13.8188   12.6677  -12.6669 C.ar    1  UNL1       -0.0312
     24 C         -14.0035   13.8385  -13.3778 C.ar    1  UNL1        0.1293
     25 N         -13.0889   14.9834  -13.1688 N.pl3   1  UNL1        0.0567
     26 O         -13.2565   16.0179  -13.7895 O.2     1  UNL1       -0.1261
     27 O         -12.1686   14.8910  -12.3763 O.2     1  UNL1       -0.1261
     28 C         -15.1237   19.2002  -20.3363 C.ar    1  UNL1       -0.0581
     29 C         -14.9430   20.2120  -21.2606 C.ar    1  UNL1       -0.0586
     30 H         -15.7237   20.9011  -24.4897 H       1  UNL1        0.0278
     31 H         -15.7179   22.0993  -23.1733 H       1  UNL1        0.0278
     32 H         -14.1921   21.3506  -23.7020 H       1  UNL1        0.0278
     33 H         -16.5256   18.8246  -23.8966 H       1  UNL1        0.0620
     34 H         -16.8418   17.0194  -22.2521 H       1  UNL1        0.0620
     35 H         -16.0455   15.9887  -20.2033 H       1  UNL1        0.0369
     36 H         -15.1638   16.9428  -18.9865 H       1  UNL1        0.0369
     37 H1        -19.4067   17.3481  -19.3590 H       1  UNL1        0.0614
     38 H2        -18.3368   17.9829  -20.6320 H       1  UNL1        0.0614
     39 H         -18.6616   15.1692  -19.9942 H       1  UNL1        0.2097
     40 H         -16.7778   17.5967  -14.9823 H       1  UNL1        0.0284
     41 H         -17.5333   18.3199  -16.4227 H       1  UNL1        0.0284
     42 H         -18.3530   16.9988  -15.5563 H       1  UNL1        0.0284
     43 H         -17.3528   14.8667  -15.3682 H       1  UNL1        0.0323
     44 H         -16.2984   14.2526  -16.6640 H       1  UNL1        0.0323
     45 H         -14.3659   15.4293  -15.6491 H       1  UNL1        0.0316
     46 H         -15.4205   16.0434  -14.3533 H       1  UNL1        0.0316
     47 H         -16.7150   12.9547  -15.1792 H       1  UNL1        0.0621
     48 H         -16.3816   10.8661  -13.9178 H       1  UNL1        0.0618
     49 H         -14.5272   10.6826  -12.3084 H       1  UNL1        0.0618
     50 H         -13.0055   12.5873  -11.9608 H       1  UNL1        0.0640
     51 H         -14.7298   19.3057  -19.3363 H       1  UNL1        0.0620
     52 H         -14.4102   21.1092  -20.9819 H       1  UNL1        0.0620
@<TRIPOS>UNITY_ATOM_ATTR
11 1
charge 1
@<TRIPOS>BOND
     1     1     2    1
     2     1    30    1
     3     1    31    1
     4     1    32    1
     5     2    29   ar
     6     2     3   ar
     7     3     4   ar
     8     3    33    1
     9     4     5   ar
    10     4    34    1
    11     5     6    1
    12     5    28   ar
    13     6     7    1
    14     6    35    1
    15     6    36    1
    16     7     8    1
    17     7     9    1
    18     7    11    1
    19     9    10    1
    20     9    37    1
    21     9    38    1
    22    10    39    1
    23    11    12    1
    24    11    13    1
    25    11    14    1
    26    14    15    1
    27    14    16    1
    28    14    17    1
    29    16    40    1
    30    16    41    1
    31    16    42    1
    32    17    18    1
    33    17    43    1
    34    17    44    1
    35    18    19    1
    36    18    45    1
    37    18    46    1
    38    19    24   ar
    39    19    20   ar
    40    20    21   ar
    41    20    47    1
    42    21    22   ar
    43    21    48    1
    44    22    23   ar
    45    22    49    1
    46    23    24   ar
    47    23    50    1
    48    24    25    1
    49    25    26    2
    50    25    27    2
    51    28    29   ar
    52    28    51    1
    53    29    52    1
@<TRIPOS>MOLECULE
ZINC000159533726      none
 47 48 0 0 0
SMALL
GASTEIGER

@<TRIPOS>ATOM
      1 C         -16.9017   15.1004  -19.4163 C.3     1  UNL1       -0.0129
      2 C         -16.7714   16.1877  -18.3480 C.3     1  UNL1        0.0539
      3 H         -16.2203   17.0346  -18.7567 H       1  UNL1        0.0947
      4 C         -16.0321   15.6353  -17.1566 C.2     1  UNL1        0.2652
      5 O         -14.9891   16.1424  -16.8015 O.2     1  UNL1       -0.2693
      6 N         -16.5298   14.5775  -16.4857 N.am    1  UNL1       -0.2796
      7 C         -15.8430   14.0644  -15.3792 C.ar    1  UNL1        0.0542
      8 C         -15.0718   14.9047  -14.5882 C.ar    1  UNL1       -0.0088
      9 C         -14.3956   14.3955  -13.4963 C.ar    1  UNL1        0.1280
     10 N         -13.5735   15.2915  -12.6523 N.pl3   1  UNL1        0.0565
     11 O         -13.4936   16.4769  -12.9206 O.2     1  UNL1       -0.1261
     12 O         -12.9770   14.8434  -11.6896 O.2     1  UNL1       -0.1261
     13 C         -14.4860   13.0502  -13.1907 C.ar    1  UNL1       -0.0300
     14 C         -15.2532   12.2095  -13.9763 C.ar    1  UNL1       -0.0394
     15 C         -15.9364   12.7132  -15.0666 C.ar    1  UNL1        0.0623
     16 CL        -16.8995   11.6576  -16.0525 Cl      1  UNL1       -0.0816
     17 N         -18.1094   16.6287  -17.9323 N.4     1  UNL1        0.2418
     18 H         -18.6196   15.8447  -17.5538 H       1  UNL1        0.2038
     19 C         -17.9843   17.6729  -16.9066 C.3     1  UNL1       -0.0424
     20 C         -18.8303   17.1671  -19.0937 C.3     1  UNL1       -0.0261
     21 C         -20.2240   17.6264  -18.6609 C.3     1  UNL1        0.0252
     22 H         -20.1415   18.4019  -17.8994 H       1  UNL1        0.0378
     23 C         -21.0280   16.4299  -18.1118 C.3     1  UNL1       -0.0429
     24 C         -22.4742   16.6861  -18.6037 C.3     1  UNL1       -0.0502
     25 C         -22.2547   17.2687  -20.0220 C.3     1  UNL1       -0.0264
     26 C         -21.0035   18.1610  -19.8751 C.3     1  UNL1        0.0629
     27 H         -21.3007   19.1956  -19.7034 H       1  UNL1        0.0598
     28 O         -20.1983   18.0724  -21.0524 O.3     1  UNL1       -0.3913
     29 H         -17.4528   14.2534  -19.0075 H       1  UNL1        0.0289
     30 H         -17.4363   15.5000  -20.2780 H       1  UNL1        0.0289
     31 H         -15.9087   14.7730  -19.7246 H       1  UNL1        0.0289
     32 H         -17.3637   14.1718  -16.7698 H       1  UNL1        0.1550
     33 H         -15.0001   15.9558  -14.8261 H       1  UNL1        0.0659
     34 H         -13.9559   12.6549  -12.3367 H       1  UNL1        0.0641
     35 H         -15.3218   11.1589  -13.7349 H       1  UNL1        0.0633
     36 H         -18.9773   18.0001  -16.5983 H       1  UNL1        0.0778
     37 H         -17.4496   17.2733  -16.0448 H       1  UNL1        0.0778
     38 H         -17.4333   18.5197  -17.3156 H       1  UNL1        0.0778
     39 H         -18.2792   18.0140  -19.5027 H       1  UNL1        0.0818
     40 H         -18.9231   16.3923  -19.8549 H       1  UNL1        0.0818
     41 H         -20.6463   15.4942  -18.5203 H       1  UNL1        0.0271
     42 H         -20.9927   16.4142  -17.0225 H       1  UNL1        0.0271
     43 H         -23.0366   15.7537  -18.6518 H       1  UNL1        0.0266
     44 H         -22.9778   17.4096  -17.9626 H       1  UNL1        0.0266
     45 H         -22.0711   16.4684  -20.7388 H       1  UNL1        0.0290
     46 H         -23.1146   17.8653  -20.3266 H       1  UNL1        0.0290
     47 H         -19.9205   17.1726  -21.2722 H       1  UNL1        0.2098
@<TRIPOS>UNITY_ATOM_ATTR
17 1
charge 1
@<TRIPOS>BOND
     1     1     2    1
     2     1    29    1
     3     1    30    1
     4     1    31    1
     5     2     3    1
     6     2     4    1
     7     2    17    1
     8     4     5    2
     9     4     6   am
    10     6     7    1
    11     6    32    1
    12     7    15   ar
    13     7     8   ar
    14     8     9   ar
    15     8    33    1
    16     9    10    1
    17     9    13   ar
    18    10    11    2
    19    10    12    2
    20    13    14   ar
    21    13    34    1
    22    14    15   ar
    23    14    35    1
    24    15    16    1
    25    17    18    1
    26    17    19    1
    27    17    20    1
    28    19    36    1
    29    19    37    1
    30    19    38    1
    31    20    21    1
    32    20    39    1
    33    20    40    1
    34    21    22    1
    35    21    26    1
    36    21    23    1
    37    23    24    1
    38    23    41    1
    39    23    42    1
    40    24    25    1
    41    24    43    1
    42    24    44    1
    43    25    26    1
    44    25    45    1
    45    25    46    1
    46    26    27    1
    47    26    28    1
    48    28    47    1
@<TRIPOS>MOLECULE
ZINC000151228439      none
 47 49 0 0 0
SMALL
GASTEIGER

@<TRIPOS>ATOM
      1 C         -16.3730   16.1673  -19.4422 C.3     1  UNL1       -0.0157
      2 C         -16.9595   16.9247  -18.2491 C.3     1  UNL1        0.0211
      3 H         -16.9507   17.9945  -18.4579 H       1  UNL1        0.0917
      4 N         -18.3410   16.4819  -18.0192 N.4     1  UNL1        0.2357
      5 H         -18.4008   15.4834  -18.1520 H       1  UNL1        0.2021
      6 H         -18.6156   16.7127  -17.0760 H       1  UNL1        0.2021
      7 C         -19.2360   17.1566  -18.9688 C.3     1  UNL1        0.0004
      8 C         -20.6750   16.6954  -18.7294 C.3     1  UNL1        0.1274
      9 C         -21.0915   17.0454  -17.2994 C.3     1  UNL1       -0.0268
     10 O         -20.7595   15.2812  -18.9174 O.3     1  UNL1       -0.3789
     11 C         -21.5930   17.3873  -19.7037 C.ar    1  UNL1       -0.0113
     12 C         -21.0775   18.2819  -20.6230 C.ar    1  UNL1       -0.0557
     13 C         -21.9197   18.9168  -21.5167 C.ar    1  UNL1       -0.0614
     14 C         -23.2771   18.6568  -21.4915 C.ar    1  UNL1       -0.0617
     15 C         -23.7924   17.7617  -20.5728 C.ar    1  UNL1       -0.0614
     16 C         -22.9497   17.1236  -19.6819 C.ar    1  UNL1       -0.0557
     17 C         -16.1316   16.6459  -17.0210 C.ar    1  UNL1        0.1302
     18 C         -15.9067   15.4377  -16.4534 C.ar    1  UNL1        0.0599
     19 N         -15.1091   15.6710  -15.3754 N.ar    1  UNL1       -0.2196
     20 C         -14.6215   14.7015  -14.4870 C.ar    1  UNL1        0.0670
     21 C         -13.8175   15.0779  -13.4197 C.ar    1  UNL1       -0.0362
     22 C         -13.3386   14.1209  -12.5464 C.ar    1  UNL1       -0.0598
     23 C         -13.6593   12.7890  -12.7345 C.ar    1  UNL1       -0.0616
     24 C         -14.4595   12.4110  -13.7969 C.ar    1  UNL1       -0.0598
     25 C         -14.9464   13.3643  -14.6699 C.ar    1  UNL1       -0.0362
     26 N         -14.8798   16.9361  -15.3134 N.ar    1  UNL1       -0.0603
     27 N         -15.4701   17.5432  -16.2815 N.ar    1  UNL1       -0.1285
     28 H         -16.3817   15.0976  -19.2333 H       1  UNL1        0.0288
     29 H         -16.9715   16.3690  -20.3304 H       1  UNL1        0.0288
     30 H         -15.3477   16.4958  -19.6128 H       1  UNL1        0.0288
     31 H         -19.1715   18.2352  -18.8252 H       1  UNL1        0.0846
     32 H         -18.9392   16.9072  -19.9876 H       1  UNL1        0.0846
     33 H         -22.1166   16.7168  -17.1288 H       1  UNL1        0.0262
     34 H         -20.4275   16.5447  -16.5948 H       1  UNL1        0.0262
     35 H         -21.0270   18.1240  -17.1558 H       1  UNL1        0.0262
     36 H         -20.1934   14.7710  -18.3221 H       1  UNL1        0.2109
     37 H         -20.0170   18.4851  -20.6427 H       1  UNL1        0.0621
     38 H         -21.5170   19.6162  -22.2344 H       1  UNL1        0.0618
     39 H         -23.9351   19.1534  -22.1893 H       1  UNL1        0.0618
     40 H         -24.8530   17.5588  -20.5527 H       1  UNL1        0.0618
     41 H         -23.3524   16.4241  -18.9641 H       1  UNL1        0.0621
     42 H         -16.2839   14.4826  -16.7879 H       1  UNL1        0.0852
     43 H         -13.5663   16.1179  -13.2725 H       1  UNL1        0.0639
     44 H         -12.7127   14.4130  -11.7161 H       1  UNL1        0.0618
     45 H         -13.2837   12.0424  -12.0503 H       1  UNL1        0.0618
     46 H         -14.7080   11.3700  -13.9415 H       1  UNL1        0.0618
     47 H         -15.5716   13.0686  -15.4994 H       1  UNL1        0.0639
@<TRIPOS>UNITY_ATOM_ATTR
4 1
charge 1
@<TRIPOS>BOND
     1     1     2    1
     2     1    28    1
     3     1    29    1
     4     1    30    1
     5     2     3    1
     6     2     4    1
     7     2    17    1
     8     4     5    1
     9     4     6    1
    10     4     7    1
    11     7     8    1
    12     7    31    1
    13     7    32    1
    14     8     9    1
    15     8    10    1
    16     8    11    1
    17     9    33    1
    18     9    34    1
    19     9    35    1
    20    10    36    1
    21    11    16   ar
    22    11    12   ar
    23    12    13   ar
    24    12    37    1
    25    13    14   ar
    26    13    38    1
    27    14    15   ar
    28    14    39    1
    29    15    16   ar
    30    15    40    1
    31    16    41    1
    32    17    27   ar
    33    17    18   ar
    34    18    19   ar
    35    18    42    1
    36    19    20    1
    37    19    26   ar
    38    20    25   ar
    39    20    21   ar
    40    21    22   ar
    41    21    43    1
    42    22    23   ar
    43    22    44    1
    44    23    24   ar
    45    23    45    1
    46    24    25   ar
    47    24    46    1
    48    25    47    1
    49    26    27   ar
